VERS 190513 80 123457 L123457
MODE SEQ
NAME
PFIL 0 0 0
LANG 0
UNIT MM X W X CM MR CPMM
FNUM 12.850000381469728 0
ENVD 2.0E+1 1 0
GFAC 0 0
GCAT SCHOTT CORNING INFRARED
XFLN 0. 0. 0.
YFLN 0.0 4.5 9.0
WAVL 0.45 0.58 0.75
RAIM 0 0 1 1 0 0 0 0 0
PUSH 0 0 0 0 0 0
SDMA 0 1 0
FTYP 0 0 3 3 0 0 0
ROPD 2
PICB 1
PWAV 2
POLS 1 0 1 0 0 1 0
GLRS 1 0
GSTD 0 100.000 100.000 100.000 100.000 100.000 100.000 0 1 1 0 0 1 1 1 1 1 1
NSCD 100 500 0 1.0E-3 5 1.0E-6 0 0 0 0 0 0 1000000 0 2
COFN QF "COATING.DAT" "SCATTER_PROFILE.DAT" "ABG_DATA.DAT" "PROFILE.GRD"
COFN COATING.DAT SCATTER_PROFILE.DAT ABG_DATA.DAT PROFILE.GRD
SURF 0
TYPE STANDARD
CURV 0.0
DISZ INFINITY
SURF 1
STOP
TYPE STANDARD
CURV 0.0000000000000000E+00
DISZ 51.1994514465332
DIAM 2.25
SURF 2
TYPE STANDARD
CURV 0.0000000000000000E+00
DISZ 7
GLAS N-BK7 0 0 1.517120 38.362166 0 0 0 0 0 0
DIAM 50.0
SURF 3
TYPE STANDARD
CURV -1.9349845126271199E-02
DISZ 2.775944709777832
DIAM 50.0
SURF 4
TYPE STANDARD
CURV 3.9438395760953001E-03
DISZ 3
GLAS C79-80 0 0 1.458740 40.488937 0 0 0 0 0 0
DIAM 50.0
SURF 5
TYPE STANDARD
CURV -1.7934003844857199E-02
DISZ 11.44927978515625
DIAM 50.0
SURF 6
TYPE STANDARD
CURV 1.7452007159590700E-02
DISZ 3.420000076293945
GLAS C79-80 0 0 1.458740 40.488937 0 0 0 0 0 0
DIAM 50.0
SURF 7
TYPE STANDARD
CURV 0.0000000000000000E+00
DISZ 17.5333194732666
DIAM 50.0
SURF 8
TYPE STANDARD
CURV -3.6403350532054901E-02
DISZ 3.5
GLAS N-SF11 0 0 1.785900 15.310743 0 0 0 0 0 0
DIAM 50.0
SURF 9
TYPE STANDARD
CURV 0.0000000000000000E+00
DISZ 2.871235847473145
DIAM 50.0
SURF 10
TYPE STANDARD
CURV 2.1810252219438501E-02
DISZ 3.789999961853027
GLAS C79-80 0 0 1.458740 40.489363 0 0 0 0 0 0
DIAM 50.0
SURF 11
TYPE STANDARD
CURV 0.0000000000000000E+00
DISZ 3.562614440917969
DIAM 50.0
SURF 12
TYPE STANDARD
CURV 0.
DISZ 0.0
DIAM 20.0
